tests/data/Loads.dss
New Load.load_p1rlv10789_1 conn=wye bus1=p1rlv10789.1 kV=0.12 Vminpu=0.8 Vmaxpu=1.2 model=1 kW=4.095937077188644 kvar=0.9158391685680531 Phases=1 !yearly=res_kw_13252_pu

New Load.load_p1rlv10789_2 conn=wye bus1=p1rlv10789.2 kV=0.12 Vminpu=0.8 Vmaxpu=1.2 model=1 kW=4.095937077188644 kvar=0.9158391685680531 Phases=1 !yearly=res_kw_13252_pu

New Load.load_p1rlv10838_1 conn=wye bus1=p1rlv10838.1 kV=0.12 Vminpu=0.8 Vmaxpu=1.2 model=1 kW=4.665542493664037 kvar=1.416706700170502 Phases=1 !yearly=res_kw_7810_pu

New Load.load_p1rlv10838_2 conn=wye bus1=p1rlv10838.2 kV=0.12 Vminpu=0.8 Vmaxpu=1.2 model=1 kW=4.665542493664037 kvar=1.416706700170502 Phases=1 !yearly=res_kw_7810_pu

New Load.load_p1rlv10842_1 conn=wye bus1=p1rlv10842.1 kV=0.12 Vminpu=0.8 Vmaxpu=1.2 model=1 kW=0.7055277650263714 kvar=0.24030088917661724 Phases=1 !yearly=res_kw_6768_pu

New Load.load_p1rlv10842_2 conn=wye bus1=p1rlv10842.2 kV=0.12 Vminpu=0.8 Vmaxpu=1.2 model=1 kW=0.7055277650263714 kvar=0.24030088917661724 Phases=1 !yearly=res_kw_6768_pu

New Load.load_p1rlv10870_1 conn=wye bus1=p1rlv10870.1 kV=0.12 Vminpu=0.8 Vmaxpu=1.2 model=1 kW=1.1427818095792333 kvar=0.5033588044558321 Phases=1 !yearly=res_kw_10152_pu

New Load.load_p1rlv10870_2 conn=wye bus1=p1rlv10870.2 kV=0.12 Vminpu=0.8 Vmaxpu=1.2 model=1 kW=1.1427818095792333 kvar=0.5033588044558321 Phases=1 !yearly=res_kw_10152_pu

New Load.load_p1rlv10875_1 conn=wye bus1=p1rlv10875.1 kV=0.12 Vminpu=0.8 Vmaxpu=1.2 model=1 kW=3.325875857998425 kvar=0.6487406534657105 Phases=1 !yearly=res_kw_7250_pu

New Load.load_p1rlv10875_2 conn=wye bus1=p1rlv10875.2 kV=0.12 Vminpu=0.8 Vmaxpu=1.2 model=1 kW=3.325875857998425 kvar=0.6487406534657105 Phases=1 !yearly=res_kw_7250_pu

New Load.load_p1rlv10906_1 conn=wye bus1=p1rlv10906.1 kV=0.12 Vminpu=0.8 Vmaxpu=1.2 model=1 kW=0.2601927423507288 kvar=0.13915962527089715 Phases=1 !yearly=res_kw_7511_pu

New Load.load_p1rlv10906_2 conn=wye bus1=p1rlv10906.2 kV=0.12 Vminpu=0.8 Vmaxpu=1.2 model=1 kW=0.2601927423507288 kvar=0.13915962527089715 Phases=1 !yearly=res_kw_7511_pu

New Load.load_p1rlv10962_1 conn=wye bus1=p1rlv10962.1 kV=0.12 Vminpu=0.8 Vmaxpu=1.2 model=1 kW=2.3792157437474204 kvar=0.7512505382175723 Phases=1 !yearly=com_kw_2251_pu

New Load.load_p1rlv10962_2 conn=wye bus1=p1rlv10962.2 kV=0.12 Vminpu=0.8 Vmaxpu=1.2 model=1 kW=2.3792157437474204 kvar=0.7512505382175723 Phases=1 !yearly=com_kw_2251_pu

New Load.load_p1rlv10967_1 conn=wye bus1=p1rlv10967.1 kV=0.12 Vminpu=0.8 Vmaxpu=1.2 model=1 kW=2.419059308693737 kvar=0.6911648224012601 Phases=1 !yearly=com_kw_17083_pu

New Load.load_p1rlv10967_2 conn=wye bus1=p1rlv10967.2 kV=0.12 Vminpu=0.8 Vmaxpu=1.2 model=1 kW=2.419059308693737 kvar=0.6911648224012601 Phases=1 !yearly=com_kw_17083_pu

New Load.load_p1rlv10991_1 conn=wye bus1=p1rlv10991.1 kV=0.12 Vminpu=0.8 Vmaxpu=1.2 model=1 kW=3.7463758536661063 kvar=1.1812611818115355 Phases=1 !yearly=res_kw_11478_pu

New Load.load_p1rlv10991_2 conn=wye bus1=p1rlv10991.2 kV=0.12 Vminpu=0.8 Vmaxpu=1.2 model=1 kW=3.7463758536661063 kvar=1.1812611818115355 Phases=1 !yearly=res_kw_11478_pu

New Load.load_p1rlv11001_1 conn=wye bus1=p1rlv11001.1 kV=0.12 Vminpu=0.8 Vmaxpu=1.2 model=1 kW=2.1342890945582846 kvar=0.10427649324668606 Phases=1 !yearly=com_kw_32198_pu

New Load.load_p1rlv11001_2 conn=wye bus1=p1rlv11001.2 kV=0.12 Vminpu=0.8 Vmaxpu=1.2 model=1 kW=2.1342890945582846 kvar=0.10427649324668606 Phases=1 !yearly=com_kw_32198_pu

New Load.load_p1rlv11073_1 conn=wye bus1=p1rlv11073.1 kV=0.12 Vminpu=0.8 Vmaxpu=1.2 model=1 kW=1.9420707460491782 kvar=0.6705332725794942 Phases=1 !yearly=res_kw_3164_pu

New Load.load_p1rlv11073_2 conn=wye bus1=p1rlv11073.2 kV=0.12 Vminpu=0.8 Vmaxpu=1.2 model=1 kW=1.9420707460491782 kvar=0.6705332725794942 Phases=1 !yearly=res_kw_3164_pu

New Load.load_p1rlv11081_1 conn=wye bus1=p1rlv11081.1 kV=0.12 Vminpu=0.8 Vmaxpu=1.2 model=1 kW=2.872515319591797 kvar=0.7328111219910317 Phases=1 !yearly=res_kw_2666_pu

New Load.load_p1rlv11081_2 conn=wye bus1=p1rlv11081.2 kV=0.12 Vminpu=0.8 Vmaxpu=1.2 model=1 kW=2.872515319591797 kvar=0.7328111219910317 Phases=1 !yearly=res_kw_2666_pu

New Load.load_p1rlv11087_1 conn=wye bus1=p1rlv11087.1 kV=0.12 Vminpu=0.8 Vmaxpu=1.2 model=1 kW=3.299800530427192 kvar=0.3429945143852251 Phases=1 !yearly=com_kw_33365_pu

New Load.load_p1rlv11087_2 conn=wye bus1=p1rlv11087.2 kV=0.12 Vminpu=0.8 Vmaxpu=1.2 model=1 kW=3.299800530427192 kvar=0.3429945143852251 Phases=1 !yearly=com_kw_33365_pu

New Load.load_p1rlv11088_1 conn=wye bus1=p1rlv11088.1 kV=0.12 Vminpu=0.8 Vmaxpu=1.2 model=1 kW=1.6323867069620042 kvar=0.40255171211713736 Phases=1 !yearly=com_kw_17825_pu

New Load.load_p1rlv11088_2 conn=wye bus1=p1rlv11088.2 kV=0.12 Vminpu=0.8 Vmaxpu=1.2 model=1 kW=1.6323867069620042 kvar=0.40255171211713736 Phases=1 !yearly=com_kw_17825_pu

New Load.load_p1rlv11104_1 conn=wye bus1=p1rlv11104.1 kV=0.12 Vminpu=0.8 Vmaxpu=1.2 model=1 kW=1.0599252267318962 kvar=0.3748861224482183 Phases=1 !yearly=res_kw_1902_pu

New Load.load_p1rlv11104_2 conn=wye bus1=p1rlv11104.2 kV=0.12 Vminpu=0.8 Vmaxpu=1.2 model=1 kW=1.0599252267318962 kvar=0.3748861224482183 Phases=1 !yearly=res_kw_1902_pu

New Load.load_p1rlv12509_1 conn=wye bus1=p1rlv12509.1 kV=0.12 Vminpu=0.8 Vmaxpu=1.2 model=1 kW=1.9560799536695528 kvar=0.499516661128582 Phases=1 !yearly=com_kw_28978_pu

New Load.load_p1rlv12509_2 conn=wye bus1=p1rlv12509.2 kV=0.12 Vminpu=0.8 Vmaxpu=1.2 model=1 kW=1.9560799536695528 kvar=0.499516661128582 Phases=1 !yearly=com_kw_28978_pu

New Load.load_p1rlv12513 conn=wye bus1=p1rlv12513.1.2.3 kV=0.48 Vminpu=0.8 Vmaxpu=1.2 model=1 kW=20.748870407428978 kvar=5.091029892468711 Phases=3 !yearly=com_kw_39278_pu

New Load.load_p1rlv12514_1 conn=wye bus1=p1rlv12514.1 kV=0.12 Vminpu=0.8 Vmaxpu=1.2 model=1 kW=3.060939667694842 kvar=0.018922139033990728 Phases=1 !yearly=com_kw_39425_pu

New Load.load_p1rlv12514_2 conn=wye bus1=p1rlv12514.2 kV=0.12 Vminpu=0.8 Vmaxpu=1.2 model=1 kW=3.060939667694842 kvar=0.018922139033990728 Phases=1 !yearly=com_kw_39425_pu

New Load.load_p1rlv12516_1 conn=wye bus1=p1rlv12516.1 kV=0.12 Vminpu=0.8 Vmaxpu=1.2 model=1 kW=2.170918611307458 kvar=0.575413421893771 Phases=1 !yearly=com_kw_31524_pu

New Load.load_p1rlv12516_2 conn=wye bus1=p1rlv12516.2 kV=0.12 Vminpu=0.8 Vmaxpu=1.2 model=1 kW=2.170918611307458 kvar=0.575413421893771 Phases=1 !yearly=com_kw_31524_pu

New Load.load_p1rlv12530_1 conn=wye bus1=p1rlv12530.1 kV=0.12 Vminpu=0.8 Vmaxpu=1.2 model=1 kW=5.960029949501431 kvar=0.322217385022483 Phases=1 !yearly=com_kw_17539_pu

New Load.load_p1rlv12530_2 conn=wye bus1=p1rlv12530.2 kV=0.12 Vminpu=0.8 Vmaxpu=1.2 model=1 kW=5.960029949501431 kvar=0.322217385022483 Phases=1 !yearly=com_kw_17539_pu

New Load.load_p1rlv12532_1 conn=wye bus1=p1rlv12532.1 kV=0.12 Vminpu=0.8 Vmaxpu=1.2 model=1 kW=1.6844632506969115 kvar=0.4071315730781585 Phases=1 !yearly=com_kw_2361_pu

New Load.load_p1rlv12532_2 conn=wye bus1=p1rlv12532.2 kV=0.12 Vminpu=0.8 Vmaxpu=1.2 model=1 kW=1.6844632506969115 kvar=0.4071315730781585 Phases=1 !yearly=com_kw_2361_pu

New Load.load_p1rlv12539_1 conn=wye bus1=p1rlv12539.1 kV=0.12 Vminpu=0.8 Vmaxpu=1.2 model=1 kW=2.6254798786649576 kvar=0.2529249421512141 Phases=1 !yearly=com_kw_16981_pu

New Load.load_p1rlv12539_2 conn=wye bus1=p1rlv12539.2 kV=0.12 Vminpu=0.8 Vmaxpu=1.2 model=1 kW=2.6254798786649576 kvar=0.2529249421512141 Phases=1 !yearly=com_kw_16981_pu

New Load.load_p1rlv12546_1 conn=wye bus1=p1rlv12546.1 kV=0.12 Vminpu=0.8 Vmaxpu=1.2 model=1 kW=6.171921265639173 kvar=0.29621618517422543 Phases=1 !yearly=com_kw_33396_pu

New Load.load_p1rlv12546_2 conn=wye bus1=p1rlv12546.2 kV=0.12 Vminpu=0.8 Vmaxpu=1.2 model=1 kW=6.171921265639173 kvar=0.29621618517422543 Phases=1 !yearly=com_kw_33396_pu

New Load.load_p1rlv12548_1 conn=wye bus1=p1rlv12548.1 kV=0.12 Vminpu=0.8 Vmaxpu=1.2 model=1 kW=3.9800785435301127 kvar=0.2597629929517743 Phases=1 !yearly=com_kw_34105_pu

New Load.load_p1rlv12548_2 conn=wye bus1=p1rlv12548.2 kV=0.12 Vminpu=0.8 Vmaxpu=1.2 model=1 kW=3.9800785435301127 kvar=0.2597629929517743 Phases=1 !yearly=com_kw_34105_pu

New Load.load_p1rlv12833_1 conn=wye bus1=p1rlv12833.1 kV=0.12 Vminpu=0.8 Vmaxpu=1.2 model=1 kW=1.2766983969851713 kvar=0.5028612878254624 Phases=1 !yearly=res_kw_8740_pu

New Load.load_p1rlv12833_2 conn=wye bus1=p1rlv12833.2 kV=0.12 Vminpu=0.8 Vmaxpu=1.2 model=1 kW=1.2766983969851713 kvar=0.5028612878254624 Phases=1 !yearly=res_kw_8740_pu

New Load.load_p1rlv12880_1 conn=wye bus1=p1rlv12880.1 kV=0.12 Vminpu=0.8 Vmaxpu=1.2 model=1 kW=5.569433532353901 kvar=0.07828940019258053 Phases=1 !yearly=res_kw_8031_pu

New Load.load_p1rlv12880_2 conn=wye bus1=p1rlv12880.2 kV=0.12 Vminpu=0.8 Vmaxpu=1.2 model=1 kW=5.569433532353901 kvar=0.07828940019258053 Phases=1 !yearly=res_kw_8031_pu

New Load.load_p1rlv12890_1 conn=wye bus1=p1rlv12890.1 kV=0.12 Vminpu=0.8 Vmaxpu=1.2 model=1 kW=2.591196691973241 kvar=0.24931128849039932 Phases=1 !yearly=com_kw_29427_pu

New Load.load_p1rlv12890_2 conn=wye bus1=p1rlv12890.2 kV=0.12 Vminpu=0.8 Vmaxpu=1.2 model=1 kW=2.591196691973241 kvar=0.24931128849039932 Phases=1 !yearly=com_kw_29427_pu

New Load.load_p1rlv12927_1 conn=wye bus1=p1rlv12927.1 kV=0.12 Vminpu=0.8 Vmaxpu=1.2 model=1 kW=0.7053152094522804 kvar=0.23880751536363234 Phases=1 !yearly=res_kw_1786_pu

New Load.load_p1rlv12927_2 conn=wye bus1=p1rlv12927.2 kV=0.12 Vminpu=0.8 Vmaxpu=1.2 model=1 kW=0.7053152094522804 kvar=0.23880751536363234 Phases=1 !yearly=res_kw_1786_pu

New Load.load_p1rlv12946_1 conn=wye bus1=p1rlv12946.1 kV=0.12 Vminpu=0.8 Vmaxpu=1.2 model=1 kW=2.606959916668558 kvar=0.5550307077474157 Phases=1 !yearly=com_kw_33605_pu

New Load.load_p1rlv12946_2 conn=wye bus1=p1rlv12946.2 kV=0.12 Vminpu=0.8 Vmaxpu=1.2 model=1 kW=2.606959916668558 kvar=0.5550307077474157 Phases=1 !yearly=com_kw_33605_pu

New Load.load_p1rlv12960_1 conn=wye bus1=p1rlv12960.1 kV=0.12 Vminpu=0.8 Vmaxpu=1.2 model=1 kW=1.9834594928986833 kvar=0.6671517036436733 Phases=1 !yearly=res_kw_9491_pu

New Load.load_p1rlv12960_2 conn=wye bus1=p1rlv12960.2 kV=0.12 Vminpu=0.8 Vmaxpu=1.2 model=1 kW=1.9834594928986833 kvar=0.6671517036436733 Phases=1 !yearly=res_kw_9491_pu

New Load.load_p1rlv13204_1 conn=wye bus1=p1rlv13204.1 kV=0.12 Vminpu=0.8 Vmaxpu=1.2 model=1 kW=4.5116290986096415 kvar=1.0913580731253951 Phases=1 !yearly=com_kw_39374_pu

New Load.load_p1rlv13204_2 conn=wye bus1=p1rlv13204.2 kV=0.12 Vminpu=0.8 Vmaxpu=1.2 model=1 kW=4.5116290986096415 kvar=1.0913580731253951 Phases=1 !yearly=com_kw_39374_pu

New Load.load_p1rlv13205_1 conn=wye bus1=p1rlv13205.1 kV=0.12 Vminpu=0.8 Vmaxpu=1.2 model=1 kW=3.498014754859445 kvar=0.018922139033990728 Phases=1 !yearly=com_kw_22751_pu

New Load.load_p1rlv13205_2 conn=wye bus1=p1rlv13205.2 kV=0.12 Vminpu=0.8 Vmaxpu=1.2 model=1 kW=3.498014754859445 kvar=0.018922139033990728 Phases=1 !yearly=com_kw_22751_pu

New Load.load_p1rlv13206 conn=wye bus1=p1rlv13206.1.2.3 kV=0.48 Vminpu=0.8 Vmaxpu=1.2 model=1 kW=27.30130022970153 kvar=4.720561949565347 Phases=3 !yearly=com_kw_16029_pu

New Load.load_p1rlv13207_1 conn=wye bus1=p1rlv13207.1 kV=0.12 Vminpu=0.8 Vmaxpu=1.2 model=1 kW=1.6844632506969115 kvar=0.4071315730781585 Phases=1 !yearly=com_kw_2361_pu

New Load.load_p1rlv13207_2 conn=wye bus1=p1rlv13207.2 kV=0.12 Vminpu=0.8 Vmaxpu=1.2 model=1 kW=1.6844632506969115 kvar=0.4071315730781585 Phases=1 !yearly=com_kw_2361_pu

New Load.load_p1rlv13869_1 conn=wye bus1=p1rlv13869.1 kV=0.12 Vminpu=0.8 Vmaxpu=1.2 model=1 kW=1.839175601618853 kvar=0.4557221316666175 Phases=1 !yearly=com_kw_17204_pu

New Load.load_p1rlv13869_2 conn=wye bus1=p1rlv13869.2 kV=0.12 Vminpu=0.8 Vmaxpu=1.2 model=1 kW=1.839175601618853 kvar=0.4557221316666175 Phases=1 !yearly=com_kw_17204_pu

New Load.load_p1rlv13871_1 conn=wye bus1=p1rlv13871.1 kV=0.12 Vminpu=0.8 Vmaxpu=1.2 model=1 kW=2.9149869461814677 kvar=0.5767582022429075 Phases=1 !yearly=com_kw_32249_pu

New Load.load_p1rlv13871_2 conn=wye bus1=p1rlv13871.2 kV=0.12 Vminpu=0.8 Vmaxpu=1.2 model=1 kW=2.9149869461814677 kvar=0.5767582022429075 Phases=1 !yearly=com_kw_32249_pu

New Load.load_p1rlv13872_1 conn=wye bus1=p1rlv13872.1 kV=0.12 Vminpu=0.8 Vmaxpu=1.2 model=1 kW=2.1343287185333217 kvar=0.10429894918818222 Phases=1 !yearly=com_kw_1789_pu

New Load.load_p1rlv13872_2 conn=wye bus1=p1rlv13872.2 kV=0.12 Vminpu=0.8 Vmaxpu=1.2 model=1 kW=2.1343287185333217 kvar=0.10429894918818222 Phases=1 !yearly=com_kw_1789_pu

New Load.load_p1rlv13878_1 conn=wye bus1=p1rlv13878.1 kV=0.12 Vminpu=0.8 Vmaxpu=1.2 model=1 kW=2.5668869117989415 kvar=0.5951466628222033 Phases=1 !yearly=com_kw_41421_pu

New Load.load_p1rlv13878_2 conn=wye bus1=p1rlv13878.2 kV=0.12 Vminpu=0.8 Vmaxpu=1.2 model=1 kW=2.5668869117989415 kvar=0.5951466628222033 Phases=1 !yearly=com_kw_41421_pu

New Load.load_p1rlv13892_1 conn=wye bus1=p1rlv13892.1 kV=0.12 Vminpu=0.8 Vmaxpu=1.2 model=1 kW=3.772462172331776 kvar=1.0755387210843397 Phases=1 !yearly=com_kw_29082_pu

New Load.load_p1rlv13892_2 conn=wye bus1=p1rlv13892.2 kV=0.12 Vminpu=0.8 Vmaxpu=1.2 model=1 kW=3.772462172331776 kvar=1.0755387210843397 Phases=1 !yearly=com_kw_29082_pu

New Load.load_p1rlv13899_1 conn=wye bus1=p1rlv13899.1 kV=0.12 Vminpu=0.8 Vmaxpu=1.2 model=1 kW=1.4699462180170992 kvar=0.3815978523472859 Phases=1 !yearly=com_kw_1701_pu

New Load.load_p1rlv13899_2 conn=wye bus1=p1rlv13899.2 kV=0.12 Vminpu=0.8 Vmaxpu=1.2 model=1 kW=1.4699462180170992 kvar=0.3815978523472859 Phases=1 !yearly=com_kw_1701_pu

New Load.load_p1rlv13905_1 conn=wye bus1=p1rlv13905.1 kV=0.12 Vminpu=0.8 Vmaxpu=1.2 model=1 kW=6.49638086103876 kvar=1.3007189970473756 Phases=1 !yearly=com_kw_2538_pu

New Load.load_p1rlv13905_2 conn=wye bus1=p1rlv13905.2 kV=0.12 Vminpu=0.8 Vmaxpu=1.2 model=1 kW=6.49638086103876 kvar=1.3007189970473756 Phases=1 !yearly=com_kw_2538_pu

New Load.load_p1rlv13906_1 conn=wye bus1=p1rlv13906.1 kV=0.12 Vminpu=0.8 Vmaxpu=1.2 model=1 kW=2.032692214158918 kvar=0.5109700530012344 Phases=1 !yearly=com_kw_2581_pu

New Load.load_p1rlv13906_2 conn=wye bus1=p1rlv13906.2 kV=0.12 Vminpu=0.8 Vmaxpu=1.2 model=1 kW=2.032692214158918 kvar=0.5109700530012344 Phases=1 !yearly=com_kw_2581_pu

New Load.load_p1rlv13912_1 conn=wye bus1=p1rlv13912.1 kV=0.12 Vminpu=0.8 Vmaxpu=1.2 model=1 kW=2.340123280881575 kvar=0.28306337277173615 Phases=1 !yearly=com_kw_33792_pu

New Load.load_p1rlv13912_2 conn=wye bus1=p1rlv13912.2 kV=0.12 Vminpu=0.8 Vmaxpu=1.2 model=1 kW=2.340123280881575 kvar=0.28306337277173615 Phases=1 !yearly=com_kw_33792_pu

New Load.load_p1rlv13919_1 conn=wye bus1=p1rlv13919.1 kV=0.12 Vminpu=0.8 Vmaxpu=1.2 model=1 kW=2.506777523971763 kvar=0.6728964006005869 Phases=1 !yearly=com_kw_21014_pu

New Load.load_p1rlv13919_2 conn=wye bus1=p1rlv13919.2 kV=0.12 Vminpu=0.8 Vmaxpu=1.2 model=1 kW=2.506777523971763 kvar=0.6728964006005869 Phases=1 !yearly=com_kw_21014_pu

New Load.load_p1rlv13920_1 conn=wye bus1=p1rlv13920.1 kV=0.12 Vminpu=0.8 Vmaxpu=1.2 model=1 kW=3.299800530427192 kvar=0.3429945143852251 Phases=1 !yearly=com_kw_33365_pu

New Load.load_p1rlv13920_2 conn=wye bus1=p1rlv13920.2 kV=0.12 Vminpu=0.8 Vmaxpu=1.2 model=1 kW=3.299800530427192 kvar=0.3429945143852251 Phases=1 !yearly=com_kw_33365_pu

New Load.load_p1rlv13925_1 conn=wye bus1=p1rlv13925.1 kV=0.12 Vminpu=0.8 Vmaxpu=1.2 model=1 kW=2.839033632547656 kvar=0.36892018645953045 Phases=1 !yearly=com_kw_2479_pu

New Load.load_p1rlv13925_2 conn=wye bus1=p1rlv13925.2 kV=0.12 Vminpu=0.8 Vmaxpu=1.2 model=1 kW=2.839033632547656 kvar=0.36892018645953045 Phases=1 !yearly=com_kw_2479_pu

New Load.load_p1rlv14676_1 conn=wye bus1=p1rlv14676.1 kV=0.12 Vminpu=0.8 Vmaxpu=1.2 model=1 kW=2.9559171691321495 kvar=0.018922139033990728 Phases=1 !yearly=com_kw_19739_pu

New Load.load_p1rlv14676_2 conn=wye bus1=p1rlv14676.2 kV=0.12 Vminpu=0.8 Vmaxpu=1.2 model=1 kW=2.9559171691321495 kvar=0.018922139033990728 Phases=1 !yearly=com_kw_19739_pu

New Load.load_p1rlv14763_1 conn=wye bus1=p1rlv14763.1 kV=0.12 Vminpu=0.8 Vmaxpu=1.2 model=1 kW=2.606959916668558 kvar=0.5550307077474157 Phases=1 !yearly=com_kw_33605_pu

New Load.load_p1rlv14763_2 conn=wye bus1=p1rlv14763.2 kV=0.12 Vminpu=0.8 Vmaxpu=1.2 model=1 kW=2.606959916668558 kvar=0.5550307077474157 Phases=1 !yearly=com_kw_33605_pu

New Load.load_p1rlv14797_1 conn=wye bus1=p1rlv14797.1 kV=0.12 Vminpu=0.8 Vmaxpu=1.2 model=1 kW=5.255322802252428 kvar=0.05676641710197242 Phases=1 !yearly=com_kw_17272_pu

New Load.load_p1rlv14797_2 conn=wye bus1=p1rlv14797.2 kV=0.12 Vminpu=0.8 Vmaxpu=1.2 model=1 kW=5.255322802252428 kvar=0.05676641710197242 Phases=1 !yearly=com_kw_17272_pu

New Load.load_p1rlv14798_1 conn=wye bus1=p1rlv14798.1 kV=0.12 Vminpu=0.8 Vmaxpu=1.2 model=1 kW=6.171921265639173 kvar=0.29621618517422543 Phases=1 !yearly=com_kw_33396_pu

New Load.load_p1rlv14798_2 conn=wye bus1=p1rlv14798.2 kV=0.12 Vminpu=0.8 Vmaxpu=1.2 model=1 kW=6.171921265639173 kvar=0.29621618517422543 Phases=1 !yearly=com_kw_33396_pu

New Load.load_p1rlv14815_1 conn=wye bus1=p1rlv14815.1 kV=0.12 Vminpu=0.8 Vmaxpu=1.2 model=1 kW=2.4437884187508536 kvar=0.6647073432497462 Phases=1 !yearly=com_kw_29508_pu

New Load.load_p1rlv14815_2 conn=wye bus1=p1rlv14815.2 kV=0.12 Vminpu=0.8 Vmaxpu=1.2 model=1 kW=2.4437884187508536 kvar=0.6647073432497462 Phases=1 !yearly=com_kw_29508_pu

New Load.load_p1rlv15270_1 conn=wye bus1=p1rlv15270.1 kV=0.12 Vminpu=0.8 Vmaxpu=1.2 model=1 kW=3.623527459970336 kvar=0.9919091624471303 Phases=1 !yearly=res_kw_9907_pu

New Load.load_p1rlv15270_2 conn=wye bus1=p1rlv15270.2 kV=0.12 Vminpu=0.8 Vmaxpu=1.2 model=1 kW=3.623527459970336 kvar=0.9919091624471303 Phases=1 !yearly=res_kw_9907_pu

New Load.load_p1rlv15271_1 conn=wye bus1=p1rlv15271.1 kV=0.12 Vminpu=0.8 Vmaxpu=1.2 model=1 kW=4.678414801724234 kvar=1.105145904548135 Phases=1 !yearly=com_kw_2147_pu

New Load.load_p1rlv15271_2 conn=wye bus1=p1rlv15271.2 kV=0.12 Vminpu=0.8 Vmaxpu=1.2 model=1 kW=4.678414801724234 kvar=1.105145904548135 Phases=1 !yearly=com_kw_2147_pu

New Load.load_p1rlv16321_1 conn=wye bus1=p1rlv16321.1 kV=0.12 Vminpu=0.8 Vmaxpu=1.2 model=1 kW=2.455621512954275 kvar=0.7274486204941961 Phases=1 !yearly=com_kw_1416_pu

New Load.load_p1rlv16321_2 conn=wye bus1=p1rlv16321.2 kV=0.12 Vminpu=0.8 Vmaxpu=1.2 model=1 kW=2.455621512954275 kvar=0.7274486204941961 Phases=1 !yearly=com_kw_1416_pu

New Load.load_p1rlv16338_1 conn=wye bus1=p1rlv16338.1 kV=0.12 Vminpu=0.8 Vmaxpu=1.2 model=1 kW=2.6009666033769583 kvar=0.30487867399122176 Phases=1 !yearly=com_kw_33842_pu

New Load.load_p1rlv16338_2 conn=wye bus1=p1rlv16338.2 kV=0.12 Vminpu=0.8 Vmaxpu=1.2 model=1 kW=2.6009666033769583 kvar=0.30487867399122176 Phases=1 !yearly=com_kw_33842_pu

New Load.load_p1rlv16353_1 conn=wye bus1=p1rlv16353.1 kV=0.12 Vminpu=0.8 Vmaxpu=1.2 model=1 kW=2.506777523971763 kvar=0.6728964006005869 Phases=1 !yearly=com_kw_21014_pu

New Load.load_p1rlv16353_2 conn=wye bus1=p1rlv16353.2 kV=0.12 Vminpu=0.8 Vmaxpu=1.2 model=1 kW=2.506777523971763 kvar=0.6728964006005869 Phases=1 !yearly=com_kw_21014_pu

New Load.load_p1rlv16367_1 conn=wye bus1=p1rlv16367.1 kV=0.12 Vminpu=0.8 Vmaxpu=1.2 model=1 kW=2.839033632547656 kvar=0.36892018645953045 Phases=1 !yearly=com_kw_2479_pu

New Load.load_p1rlv16367_2 conn=wye bus1=p1rlv16367.2 kV=0.12 Vminpu=0.8 Vmaxpu=1.2 model=1 kW=2.839033632547656 kvar=0.36892018645953045 Phases=1 !yearly=com_kw_2479_pu

New Load.load_p1rlv16374_1 conn=wye bus1=p1rlv16374.1 kV=0.12 Vminpu=0.8 Vmaxpu=1.2 model=1 kW=3.443583112785006 kvar=0.2576306570382033 Phases=1 !yearly=com_kw_32163_pu

New Load.load_p1rlv16374_2 conn=wye bus1=p1rlv16374.2 kV=0.12 Vminpu=0.8 Vmaxpu=1.2 model=1 kW=3.443583112785006 kvar=0.2576306570382033 Phases=1 !yearly=com_kw_32163_pu

New Load.load_p1rlv17390_1 conn=wye bus1=p1rlv17390.1 kV=0.12 Vminpu=0.8 Vmaxpu=1.2 model=1 kW=2.31125911334339 kvar=0.6469035988597648 Phases=1 !yearly=com_kw_33186_pu

New Load.load_p1rlv17390_2 conn=wye bus1=p1rlv17390.2 kV=0.12 Vminpu=0.8 Vmaxpu=1.2 model=1 kW=2.31125911334339 kvar=0.6469035988597648 Phases=1 !yearly=com_kw_33186_pu

New Load.load_p1rlv17479_1 conn=wye bus1=p1rlv17479.1 kV=0.12 Vminpu=0.8 Vmaxpu=1.2 model=1 kW=0.5348201699646123 kvar=0.21241824123648728 Phases=1 !yearly=res_kw_11875_pu

New Load.load_p1rlv17479_2 conn=wye bus1=p1rlv17479.2 kV=0.12 Vminpu=0.8 Vmaxpu=1.2 model=1 kW=0.5348201699646123 kvar=0.21241824123648728 Phases=1 !yearly=res_kw_11875_pu

New Load.load_p1rlv17484_1 conn=wye bus1=p1rlv17484.1 kV=0.12 Vminpu=0.8 Vmaxpu=1.2 model=1 kW=1.9091540745929014 kvar=0.5092410528673206 Phases=1 !yearly=com_kw_29637_pu

New Load.load_p1rlv17484_2 conn=wye bus1=p1rlv17484.2 kV=0.12 Vminpu=0.8 Vmaxpu=1.2 model=1 kW=1.9091540745929014 kvar=0.5092410528673206 Phases=1 !yearly=com_kw_29637_pu

New Load.load_p1rlv17510_1 conn=wye bus1=p1rlv17510.1 kV=0.12 Vminpu=0.8 Vmaxpu=1.2 model=1 kW=2.290544136396002 kvar=0.6122151063053857 Phases=1 !yearly=com_kw_1777_pu

New Load.load_p1rlv17510_2 conn=wye bus1=p1rlv17510.2 kV=0.12 Vminpu=0.8 Vmaxpu=1.2 model=1 kW=2.290544136396002 kvar=0.6122151063053857 Phases=1 !yearly=com_kw_1777_pu

New Load.load_p1rlv17511_1 conn=wye bus1=p1rlv17511.1 kV=0.12 Vminpu=0.8 Vmaxpu=1.2 model=1 kW=2.468202499819808 kvar=0.6441055098757433 Phases=1 !yearly=com_kw_29656_pu

New Load.load_p1rlv17511_2 conn=wye bus1=p1rlv17511.2 kV=0.12 Vminpu=0.8 Vmaxpu=1.2 model=1 kW=2.468202499819808 kvar=0.6441055098757433 Phases=1 !yearly=com_kw_29656_pu

New Load.load_p1rlv17513_1 conn=wye bus1=p1rlv17513.1 kV=0.12 Vminpu=0.8 Vmaxpu=1.2 model=1 kW=2.2197968815902716 kvar=0.5722717828994575 Phases=1 !yearly=com_kw_1541_pu

New Load.load_p1rlv17513_2 conn=wye bus1=p1rlv17513.2 kV=0.12 Vminpu=0.8 Vmaxpu=1.2 model=1 kW=2.2197968815902716 kvar=0.5722717828994575 Phases=1 !yearly=com_kw_1541_pu

New Load.load_p1rlv17514_1 conn=wye bus1=p1rlv17514.1 kV=0.12 Vminpu=0.8 Vmaxpu=1.2 model=1 kW=2.5202593896091736 kvar=0.6973445820856009 Phases=1 !yearly=com_kw_1115_pu

New Load.load_p1rlv17514_2 conn=wye bus1=p1rlv17514.2 kV=0.12 Vminpu=0.8 Vmaxpu=1.2 model=1 kW=2.5202593896091736 kvar=0.6973445820856009 Phases=1 !yearly=com_kw_1115_pu

New Load.load_p1rlv17517_1 conn=wye bus1=p1rlv17517.1 kV=0.12 Vminpu=0.8 Vmaxpu=1.2 model=1 kW=6.171921265639173 kvar=0.29621618517422543 Phases=1 !yearly=com_kw_33396_pu

New Load.load_p1rlv17517_2 conn=wye bus1=p1rlv17517.2 kV=0.12 Vminpu=0.8 Vmaxpu=1.2 model=1 kW=6.171921265639173 kvar=0.29621618517422543 Phases=1 !yearly=com_kw_33396_pu

New Load.load_p1rlv19145_1 conn=wye bus1=p1rlv19145.1 kV=0.12 Vminpu=0.8 Vmaxpu=1.2 model=1 kW=4.3405081307205 kvar=0.7563204145187363 Phases=1 !yearly=res_kw_13824_pu

New Load.load_p1rlv19145_2 conn=wye bus1=p1rlv19145.2 kV=0.12 Vminpu=0.8 Vmaxpu=1.2 model=1 kW=4.3405081307205 kvar=0.7563204145187363 Phases=1 !yearly=res_kw_13824_pu

New Load.load_p1rlv19148_1 conn=wye bus1=p1rlv19148.1 kV=0.12 Vminpu=0.8 Vmaxpu=1.2 model=1 kW=1.3786182488338723 kvar=0.5359363058124609 Phases=1 !yearly=res_kw_277_pu

New Load.load_p1rlv19148_2 conn=wye bus1=p1rlv19148.2 kV=0.12 Vminpu=0.8 Vmaxpu=1.2 model=1 kW=1.3786182488338723 kvar=0.5359363058124609 Phases=1 !yearly=res_kw_277_pu

New Load.load_p1rlv19150_1 conn=wye bus1=p1rlv19150.1 kV=0.12 Vminpu=0.8 Vmaxpu=1.2 model=1 kW=4.037961707989467 kvar=0.3691190849967326 Phases=1 !yearly=res_kw_8669_pu

New Load.load_p1rlv19150_2 conn=wye bus1=p1rlv19150.2 kV=0.12 Vminpu=0.8 Vmaxpu=1.2 model=1 kW=4.037961707989467 kvar=0.3691190849967326 Phases=1 !yearly=res_kw_8669_pu

New Load.load_p1rlv19152_1 conn=wye bus1=p1rlv19152.1 kV=0.12 Vminpu=0.8 Vmaxpu=1.2 model=1 kW=4.774034588817963 kvar=1.005441618856208 Phases=1 !yearly=res_kw_9022_pu

New Load.load_p1rlv19152_2 conn=wye bus1=p1rlv19152.2 kV=0.12 Vminpu=0.8 Vmaxpu=1.2 model=1 kW=4.774034588817963 kvar=1.005441618856208 Phases=1 !yearly=res_kw_9022_pu

New Load.load_p1rlv19153_1 conn=wye bus1=p1rlv19153.1 kV=0.12 Vminpu=0.8 Vmaxpu=1.2 model=1 kW=0.7812856221781264 kvar=0.29493523962554685 Phases=1 !yearly=res_kw_11820_pu

New Load.load_p1rlv19153_2 conn=wye bus1=p1rlv19153.2 kV=0.12 Vminpu=0.8 Vmaxpu=1.2 model=1 kW=0.7812856221781264 kvar=0.29493523962554685 Phases=1 !yearly=res_kw_11820_pu

New Load.load_p1rlv19154_1 conn=wye bus1=p1rlv19154.1 kV=0.12 Vminpu=0.8 Vmaxpu=1.2 model=1 kW=2.8145950466373417 kvar=0.09093602970127403 Phases=1 !yearly=res_kw_910_pu

New Load.load_p1rlv19154_2 conn=wye bus1=p1rlv19154.2 kV=0.12 Vminpu=0.8 Vmaxpu=1.2 model=1 kW=2.8145950466373417 kvar=0.09093602970127403 Phases=1 !yearly=res_kw_910_pu

New Load.load_p1rlv19155_1 conn=wye bus1=p1rlv19155.1 kV=0.12 Vminpu=0.8 Vmaxpu=1.2 model=1 kW=1.7771517670040275 kvar=0.8838563298920215 Phases=1 !yearly=res_kw_3492_pu

New Load.load_p1rlv19155_2 conn=wye bus1=p1rlv19155.2 kV=0.12 Vminpu=0.8 Vmaxpu=1.2 model=1 kW=1.7771517670040275 kvar=0.8838563298920215 Phases=1 !yearly=res_kw_3492_pu

New Load.load_p1rlv19158_1 conn=wye bus1=p1rlv19158.1 kV=0.12 Vminpu=0.8 Vmaxpu=1.2 model=1 kW=1.794005533851084 kvar=0.6855099409421886 Phases=1 !yearly=res_kw_8268_pu

New Load.load_p1rlv19158_2 conn=wye bus1=p1rlv19158.2 kV=0.12 Vminpu=0.8 Vmaxpu=1.2 model=1 kW=1.794005533851084 kvar=0.6855099409421886 Phases=1 !yearly=res_kw_8268_pu

New Load.load_p1rlv19159_1 conn=wye bus1=p1rlv19159.1 kV=0.12 Vminpu=0.8 Vmaxpu=1.2 model=1 kW=1.3054484642249038 kvar=0.5192802023539763 Phases=1 !yearly=res_kw_11113_pu

New Load.load_p1rlv19159_2 conn=wye bus1=p1rlv19159.2 kV=0.12 Vminpu=0.8 Vmaxpu=1.2 model=1 kW=1.3054484642249038 kvar=0.5192802023539763 Phases=1 !yearly=res_kw_11113_pu

New Load.load_p1rlv19162_1 conn=wye bus1=p1rlv19162.1 kV=0.12 Vminpu=0.8 Vmaxpu=1.2 model=1 kW=2.445994317964332 kvar=0.8597073331859654 Phases=1 !yearly=res_kw_13148_pu

New Load.load_p1rlv19162_2 conn=wye bus1=p1rlv19162.2 kV=0.12 Vminpu=0.8 Vmaxpu=1.2 model=1 kW=2.445994317964332 kvar=0.8597073331859654 Phases=1 !yearly=res_kw_13148_pu

New Load.load_p1rlv19167_1 conn=wye bus1=p1rlv19167.1 kV=0.12 Vminpu=0.8 Vmaxpu=1.2 model=1 kW=1.5290895920961123 kvar=0.36247808422876804 Phases=1 !yearly=com_kw_32053_pu

New Load.load_p1rlv19167_2 conn=wye bus1=p1rlv19167.2 kV=0.12 Vminpu=0.8 Vmaxpu=1.2 model=1 kW=1.5290895920961123 kvar=0.36247808422876804 Phases=1 !yearly=com_kw_32053_pu

New Load.load_p1rlv19170_1 conn=wye bus1=p1rlv19170.1 kV=0.12 Vminpu=0.8 Vmaxpu=1.2 model=1 kW=1.839175601618853 kvar=0.4557221316666175 Phases=1 !yearly=com_kw_17204_pu

New Load.load_p1rlv19170_2 conn=wye bus1=p1rlv19170.2 kV=0.12 Vminpu=0.8 Vmaxpu=1.2 model=1 kW=1.839175601618853 kvar=0.4557221316666175 Phases=1 !yearly=com_kw_17204_pu

New Load.load_p1rlv19175_1 conn=wye bus1=p1rlv19175.1 kV=0.12 Vminpu=0.8 Vmaxpu=1.2 model=1 kW=2.1929222716193686 kvar=0.6234515659906771 Phases=1 !yearly=com_kw_17396_pu

New Load.load_p1rlv19175_2 conn=wye bus1=p1rlv19175.2 kV=0.12 Vminpu=0.8 Vmaxpu=1.2 model=1 kW=2.1929222716193686 kvar=0.6234515659906771 Phases=1 !yearly=com_kw_17396_pu

New Load.load_p1rlv19177_1 conn=wye bus1=p1rlv19177.1 kV=0.12 Vminpu=0.8 Vmaxpu=1.2 model=1 kW=4.5208042577890035 kvar=0.41759446885548385 Phases=1 !yearly=com_kw_2052_pu

New Load.load_p1rlv19177_2 conn=wye bus1=p1rlv19177.2 kV=0.12 Vminpu=0.8 Vmaxpu=1.2 model=1 kW=4.5208042577890035 kvar=0.41759446885548385 Phases=1 !yearly=com_kw_2052_pu

New Load.load_p1rlv19178_1 conn=wye bus1=p1rlv19178.1 kV=0.12 Vminpu=0.8 Vmaxpu=1.2 model=1 kW=3.1426015471760884 kvar=0.5928311844731246 Phases=1 !yearly=res_kw_4990_pu

New Load.load_p1rlv19178_2 conn=wye bus1=p1rlv19178.2 kV=0.12 Vminpu=0.8 Vmaxpu=1.2 model=1 kW=3.1426015471760884 kvar=0.5928311844731246 Phases=1 !yearly=res_kw_4990_pu

New Load.load_p1rlv19182_1 conn=wye bus1=p1rlv19182.1 kV=0.12 Vminpu=0.8 Vmaxpu=1.2 model=1 kW=3.418311566377345 kvar=0.6596673444150283 Phases=1 !yearly=res_kw_13026_pu

New Load.load_p1rlv19182_2 conn=wye bus1=p1rlv19182.2 kV=0.12 Vminpu=0.8 Vmaxpu=1.2 model=1 kW=3.418311566377345 kvar=0.6596673444150283 Phases=1 !yearly=res_kw_13026_pu

New Load.load_p1rlv19185_1 conn=wye bus1=p1rlv19185.1 kV=0.12 Vminpu=0.8 Vmaxpu=1.2 model=1 kW=2.2489699911360574 kvar=0.6200743429841856 Phases=1 !yearly=com_kw_2255_pu

New Load.load_p1rlv19185_2 conn=wye bus1=p1rlv19185.2 kV=0.12 Vminpu=0.8 Vmaxpu=1.2 model=1 kW=2.2489699911360574 kvar=0.6200743429841856 Phases=1 !yearly=com_kw_2255_pu

New Load.load_p1rlv19186_1 conn=wye bus1=p1rlv19186.1 kV=0.12 Vminpu=0.8 Vmaxpu=1.2 model=1 kW=2.3792157437474204 kvar=0.7512505382175723 Phases=1 !yearly=com_kw_2251_pu

New Load.load_p1rlv19186_2 conn=wye bus1=p1rlv19186.2 kV=0.12 Vminpu=0.8 Vmaxpu=1.2 model=1 kW=2.3792157437474204 kvar=0.7512505382175723 Phases=1 !yearly=com_kw_2251_pu

New Load.load_p1rlv19187_1 conn=wye bus1=p1rlv19187.1 kV=0.12 Vminpu=0.8 Vmaxpu=1.2 model=1 kW=2.1698158732703443 kvar=0.8490689598373361 Phases=1 !yearly=res_kw_8743_pu

New Load.load_p1rlv19187_2 conn=wye bus1=p1rlv19187.2 kV=0.12 Vminpu=0.8 Vmaxpu=1.2 model=1 kW=2.1698158732703443 kvar=0.8490689598373361 Phases=1 !yearly=res_kw_8743_pu

New Load.load_p1rlv19192_1 conn=wye bus1=p1rlv19192.1 kV=0.12 Vminpu=0.8 Vmaxpu=1.2 model=1 kW=5.847447811776605 kvar=0.9157626905937845 Phases=1 !yearly=com_kw_41405_pu

New Load.load_p1rlv19192_2 conn=wye bus1=p1rlv19192.2 kV=0.12 Vminpu=0.8 Vmaxpu=1.2 model=1 kW=5.847447811776605 kvar=0.9157626905937845 Phases=1 !yearly=com_kw_41405_pu

New Load.load_p1rlv19195_1 conn=wye bus1=p1rlv19195.1 kV=0.12 Vminpu=0.8 Vmaxpu=1.2 model=1 kW=2.4146763306383106 kvar=0.6793582693447386 Phases=1 !yearly=com_kw_39448_pu

New Load.load_p1rlv19195_2 conn=wye bus1=p1rlv19195.2 kV=0.12 Vminpu=0.8 Vmaxpu=1.2 model=1 kW=2.4146763306383106 kvar=0.6793582693447386 Phases=1 !yearly=com_kw_39448_pu

New Load.load_p1rlv19196_1 conn=wye bus1=p1rlv19196.1 kV=0.12 Vminpu=0.8 Vmaxpu=1.2 model=1 kW=2.3415535522892696 kvar=0.7028882119915548 Phases=1 !yearly=com_kw_16586_pu

New Load.load_p1rlv19196_2 conn=wye bus1=p1rlv19196.2 kV=0.12 Vminpu=0.8 Vmaxpu=1.2 model=1 kW=2.3415535522892696 kvar=0.7028882119915548 Phases=1 !yearly=com_kw_16586_pu

New Load.load_p1rlv19832_1 conn=wye bus1=p1rlv19832.1 kV=0.12 Vminpu=0.8 Vmaxpu=1.2 model=1 kW=4.338024948143216 kvar=0.9096814401074484 Phases=1 !yearly=res_kw_3774_pu

New Load.load_p1rlv19832_2 conn=wye bus1=p1rlv19832.2 kV=0.12 Vminpu=0.8 Vmaxpu=1.2 model=1 kW=4.338024948143216 kvar=0.9096814401074484 Phases=1 !yearly=res_kw_3774_pu

New Load.load_p1rlv19845_1 conn=wye bus1=p1rlv19845.1 kV=0.12 Vminpu=0.8 Vmaxpu=1.2 model=1 kW=1.4663769608466568 kvar=0.5502546109327153 Phases=1 !yearly=res_kw_678_pu

New Load.load_p1rlv19845_2 conn=wye bus1=p1rlv19845.2 kV=0.12 Vminpu=0.8 Vmaxpu=1.2 model=1 kW=1.4663769608466568 kvar=0.5502546109327153 Phases=1 !yearly=res_kw_678_pu

New Load.load_p1rlv19849_1 conn=wye bus1=p1rlv19849.1 kV=0.12 Vminpu=0.8 Vmaxpu=1.2 model=1 kW=2.2197968815902716 kvar=0.5722717828994575 Phases=1 !yearly=com_kw_1541_pu

New Load.load_p1rlv19849_2 conn=wye bus1=p1rlv19849.2 kV=0.12 Vminpu=0.8 Vmaxpu=1.2 model=1 kW=2.2197968815902716 kvar=0.5722717828994575 Phases=1 !yearly=com_kw_1541_pu

New Load.load_p1rlv19851_1 conn=wye bus1=p1rlv19851.1 kV=0.12 Vminpu=0.8 Vmaxpu=1.2 model=1 kW=2.4868228207229564 kvar=0.16976956391895093 Phases=1 !yearly=res_kw_4683_pu

New Load.load_p1rlv19851_2 conn=wye bus1=p1rlv19851.2 kV=0.12 Vminpu=0.8 Vmaxpu=1.2 model=1 kW=2.4868228207229564 kvar=0.16976956391895093 Phases=1 !yearly=res_kw_4683_pu

New Load.load_p1rlv19854_1 conn=wye bus1=p1rlv19854.1 kV=0.12 Vminpu=0.8 Vmaxpu=1.2 model=1 kW=2.4473849682194437 kvar=0.3216194123870954 Phases=1 !yearly=com_kw_32123_pu

New Load.load_p1rlv19854_2 conn=wye bus1=p1rlv19854.2 kV=0.12 Vminpu=0.8 Vmaxpu=1.2 model=1 kW=2.4473849682194437 kvar=0.3216194123870954 Phases=1 !yearly=com_kw_32123_pu

New Load.load_p1rlv19861_1 conn=wye bus1=p1rlv19861.1 kV=0.12 Vminpu=0.8 Vmaxpu=1.2 model=1 kW=5.611133182200907 kvar=0.07668264048246332 Phases=1 !yearly=com_kw_1743_pu

New Load.load_p1rlv19861_2 conn=wye bus1=p1rlv19861.2 kV=0.12 Vminpu=0.8 Vmaxpu=1.2 model=1 kW=5.611133182200907 kvar=0.07668264048246332 Phases=1 !yearly=com_kw_1743_pu

New Load.load_p1rlv19870_1 conn=wye bus1=p1rlv19870.1 kV=0.12 Vminpu=0.8 Vmaxpu=1.2 model=1 kW=1.7653657521185364 kvar=0.4426471780914222 Phases=1 !yearly=com_kw_1835_pu

New Load.load_p1rlv19870_2 conn=wye bus1=p1rlv19870.2 kV=0.12 Vminpu=0.8 Vmaxpu=1.2 model=1 kW=1.7653657521185364 kvar=0.4426471780914222 Phases=1 !yearly=com_kw_1835_pu

New Load.load_p1rlv19879_1 conn=wye bus1=p1rlv19879.1 kV=0.12 Vminpu=0.8 Vmaxpu=1.2 model=1 kW=3.1801024488747824 kvar=0.6406661654566495 Phases=1 !yearly=res_kw_8318_pu

New Load.load_p1rlv19879_2 conn=wye bus1=p1rlv19879.2 kV=0.12 Vminpu=0.8 Vmaxpu=1.2 model=1 kW=3.1801024488747824 kvar=0.6406661654566495 Phases=1 !yearly=res_kw_8318_pu

New Load.load_p1rlv19892_1 conn=wye bus1=p1rlv19892.1 kV=0.12 Vminpu=0.8 Vmaxpu=1.2 model=1 kW=3.8622473277995177 kvar=1.3827214367786913 Phases=1 !yearly=res_kw_7189_pu

New Load.load_p1rlv19892_2 conn=wye bus1=p1rlv19892.2 kV=0.12 Vminpu=0.8 Vmaxpu=1.2 model=1 kW=3.8622473277995177 kvar=1.3827214367786913 Phases=1 !yearly=res_kw_7189_pu

New Load.load_p1rlv19894_1 conn=wye bus1=p1rlv19894.1 kV=0.12 Vminpu=0.8 Vmaxpu=1.2 model=1 kW=2.4991495076440033 kvar=0.3360328736424813 Phases=1 !yearly=res_kw_10201_pu

New Load.load_p1rlv19894_2 conn=wye bus1=p1rlv19894.2 kV=0.12 Vminpu=0.8 Vmaxpu=1.2 model=1 kW=2.4991495076440033 kvar=0.3360328736424813 Phases=1 !yearly=res_kw_10201_pu

New Load.load_p1rlv19910_1 conn=wye bus1=p1rlv19910.1 kV=0.12 Vminpu=0.8 Vmaxpu=1.2 model=1 kW=1.8936489420345144 kvar=0.7926648620319505 Phases=1 !yearly=res_kw_6563_pu

New Load.load_p1rlv19910_2 conn=wye bus1=p1rlv19910.2 kV=0.12 Vminpu=0.8 Vmaxpu=1.2 model=1 kW=1.8936489420345144 kvar=0.7926648620319505 Phases=1 !yearly=res_kw_6563_pu

New Load.load_p1rlv20123 conn=wye bus1=p1rlv20123.1.2.3 kV=0.48 Vminpu=0.8 Vmaxpu=1.2 model=1 kW=37.08119360134779 kvar=2.614985088477911 Phases=3 !yearly=com_kw_29129_pu

New Load.load_p1rlv20124 conn=wye bus1=p1rlv20124.1.2.3 kV=0.48 Vminpu=0.8 Vmaxpu=1.2 model=1 kW=75.35318055696085 kvar=6.9561501893936635 Phases=3 !yearly=com_kw_31798_pu

New Load.load_p1rlv20125 conn=wye bus1=p1rlv20125.1.2.3 kV=0.48 Vminpu=0.8 Vmaxpu=1.2 model=1 kW=30.59597273740332 kvar=8.431946799113854 Phases=3 !yearly=com_kw_29345_pu

New Load.load_p1rlv20126_1 conn=wye bus1=p1rlv20126.1 kV=0.12 Vminpu=0.8 Vmaxpu=1.2 model=1 kW=6.6399815416906165 kvar=1.7978711365625075 Phases=1 !yearly=com_kw_1147_pu

New Load.load_p1rlv20126_2 conn=wye bus1=p1rlv20126.2 kV=0.12 Vminpu=0.8 Vmaxpu=1.2 model=1 kW=6.6399815416906165 kvar=1.7978711365625075 Phases=1 !yearly=com_kw_1147_pu

New Load.load_p1rlv20127 conn=wye bus1=p1rlv20127.1.2.3 kV=0.48 Vminpu=0.8 Vmaxpu=1.2 model=1 kW=22.34932374375116 kvar=6.355804000700292 Phases=3 !yearly=com_kw_41293_pu

New Load.load_p1rlv20217_1 conn=wye bus1=p1rlv20217.1 kV=0.12 Vminpu=0.8 Vmaxpu=1.2 model=1 kW=2.3792157437474204 kvar=0.7512505382175723 Phases=1 !yearly=com_kw_2251_pu

New Load.load_p1rlv20217_2 conn=wye bus1=p1rlv20217.2 kV=0.12 Vminpu=0.8 Vmaxpu=1.2 model=1 kW=2.3792157437474204 kvar=0.7512505382175723 Phases=1 !yearly=com_kw_2251_pu

New Load.load_p1rlv20218_1 conn=wye bus1=p1rlv20218.1 kV=0.12 Vminpu=0.8 Vmaxpu=1.2 model=1 kW=2.942829069048031 kvar=0.025560880160820944 Phases=1 !yearly=com_kw_1308_pu

New Load.load_p1rlv20218_2 conn=wye bus1=p1rlv20218.2 kV=0.12 Vminpu=0.8 Vmaxpu=1.2 model=1 kW=2.942829069048031 kvar=0.025560880160820944 Phases=1 !yearly=com_kw_1308_pu

New Load.load_p1rlv20219_1 conn=wye bus1=p1rlv20219.1 kV=0.12 Vminpu=0.8 Vmaxpu=1.2 model=1 kW=3.56773081582568 kvar=0.025560880160820944 Phases=1 !yearly=com_kw_16229_pu

New Load.load_p1rlv20219_2 conn=wye bus1=p1rlv20219.2 kV=0.12 Vminpu=0.8 Vmaxpu=1.2 model=1 kW=3.56773081582568 kvar=0.025560880160820944 Phases=1 !yearly=com_kw_16229_pu

New Load.load_p1rlv20220_1 conn=wye bus1=p1rlv20220.1 kV=0.12 Vminpu=0.8 Vmaxpu=1.2 model=1 kW=3.4517100227560538 kvar=0.3274242647392065 Phases=1 !yearly=com_kw_17950_pu

New Load.load_p1rlv20220_2 conn=wye bus1=p1rlv20220.2 kV=0.12 Vminpu=0.8 Vmaxpu=1.2 model=1 kW=3.4517100227560538 kvar=0.3274242647392065 Phases=1 !yearly=com_kw_17950_pu

New Load.load_p1rlv20221_1 conn=wye bus1=p1rlv20221.1 kV=0.12 Vminpu=0.8 Vmaxpu=1.2 model=1 kW=6.0744960226057145 kvar=1.5614945835925704 Phases=1 !yearly=com_kw_39410_pu

New Load.load_p1rlv20221_2 conn=wye bus1=p1rlv20221.2 kV=0.12 Vminpu=0.8 Vmaxpu=1.2 model=1 kW=6.0744960226057145 kvar=1.5614945835925704 Phases=1 !yearly=com_kw_39410_pu

New Load.load_p1rlv20222_1 conn=wye bus1=p1rlv20222.1 kV=0.12 Vminpu=0.8 Vmaxpu=1.2 model=1 kW=1.839175601618853 kvar=0.4557221316666175 Phases=1 !yearly=com_kw_17204_pu

New Load.load_p1rlv20222_2 conn=wye bus1=p1rlv20222.2 kV=0.12 Vminpu=0.8 Vmaxpu=1.2 model=1 kW=1.839175601618853 kvar=0.4557221316666175 Phases=1 !yearly=com_kw_17204_pu

New Load.load_p1rlv20223_1 conn=wye bus1=p1rlv20223.1 kV=0.12 Vminpu=0.8 Vmaxpu=1.2 model=1 kW=2.1674877724727226 kvar=0.5757691963629787 Phases=1 !yearly=com_kw_16145_pu

New Load.load_p1rlv20223_2 conn=wye bus1=p1rlv20223.2 kV=0.12 Vminpu=0.8 Vmaxpu=1.2 model=1 kW=2.1674877724727226 kvar=0.5757691963629787 Phases=1 !yearly=com_kw_16145_pu

New Load.load_p1rlv20224_1 conn=wye bus1=p1rlv20224.1 kV=0.12 Vminpu=0.8 Vmaxpu=1.2 model=1 kW=2.1342890945582846 kvar=0.10427649324668606 Phases=1 !yearly=com_kw_32198_pu

New Load.load_p1rlv20224_2 conn=wye bus1=p1rlv20224.2 kV=0.12 Vminpu=0.8 Vmaxpu=1.2 model=1 kW=2.1342890945582846 kvar=0.10427649324668606 Phases=1 !yearly=com_kw_32198_pu

New Load.load_p1rlv20225_1 conn=wye bus1=p1rlv20225.1 kV=0.12 Vminpu=0.8 Vmaxpu=1.2 model=1 kW=2.1545670008895326 kvar=0.10358662309965033 Phases=1 !yearly=com_kw_18088_pu

New Load.load_p1rlv20225_2 conn=wye bus1=p1rlv20225.2 kV=0.12 Vminpu=0.8 Vmaxpu=1.2 model=1 kW=2.1545670008895326 kvar=0.10358662309965033 Phases=1 !yearly=com_kw_18088_pu

New Load.load_p1rlv20226 conn=wye bus1=p1rlv20226.1.2.3 kV=0.48 Vminpu=0.8 Vmaxpu=1.2 model=1 kW=29.702185029626992 kvar=5.8037764258376505 Phases=3 !yearly=com_kw_39587_pu

New Load.load_p1rlv20227_1 conn=wye bus1=p1rlv20227.1 kV=0.12 Vminpu=0.8 Vmaxpu=1.2 model=1 kW=2.17188390355877 kvar=0.554870220420769 Phases=1 !yearly=com_kw_8354_pu

New Load.load_p1rlv20227_2 conn=wye bus1=p1rlv20227.2 kV=0.12 Vminpu=0.8 Vmaxpu=1.2 model=1 kW=2.17188390355877 kvar=0.554870220420769 Phases=1 !yearly=com_kw_8354_pu

New Load.load_p1rlv20228_1 conn=wye bus1=p1rlv20228.1 kV=0.12 Vminpu=0.8 Vmaxpu=1.2 model=1 kW=1.9091540745929014 kvar=0.5092410528673206 Phases=1 !yearly=com_kw_29637_pu

New Load.load_p1rlv20228_2 conn=wye bus1=p1rlv20228.2 kV=0.12 Vminpu=0.8 Vmaxpu=1.2 model=1 kW=1.9091540745929014 kvar=0.5092410528673206 Phases=1 !yearly=com_kw_29637_pu

New Load.load_p1rlv20229_1 conn=wye bus1=p1rlv20229.1 kV=0.12 Vminpu=0.8 Vmaxpu=1.2 model=1 kW=2.6277722044378486 kvar=0.6969686665668667 Phases=1 !yearly=com_kw_29191_pu

New Load.load_p1rlv20229_2 conn=wye bus1=p1rlv20229.2 kV=0.12 Vminpu=0.8 Vmaxpu=1.2 model=1 kW=2.6277722044378486 kvar=0.6969686665668667 Phases=1 !yearly=com_kw_29191_pu

New Load.load_p1rlv20230_1 conn=wye bus1=p1rlv20230.1 kV=0.12 Vminpu=0.8 Vmaxpu=1.2 model=1 kW=2.4425535477014515 kvar=0.6934264438496061 Phases=1 !yearly=com_kw_17845_pu

New Load.load_p1rlv20230_2 conn=wye bus1=p1rlv20230.2 kV=0.12 Vminpu=0.8 Vmaxpu=1.2 model=1 kW=2.4425535477014515 kvar=0.6934264438496061 Phases=1 !yearly=com_kw_17845_pu

New Load.load_p1rlv20231_1 conn=wye bus1=p1rlv20231.1 kV=0.12 Vminpu=0.8 Vmaxpu=1.2 model=1 kW=5.67088575765151 kvar=1.4725744530283946 Phases=1 !yearly=com_kw_35614_pu

New Load.load_p1rlv20231_2 conn=wye bus1=p1rlv20231.2 kV=0.12 Vminpu=0.8 Vmaxpu=1.2 model=1 kW=5.67088575765151 kvar=1.4725744530283946 Phases=1 !yearly=com_kw_35614_pu

New Load.load_p1rlv20232_1 conn=wye bus1=p1rlv20232.1 kV=0.12 Vminpu=0.8 Vmaxpu=1.2 model=1 kW=1.9288466752414104 kvar=0.5041700498617779 Phases=1 !yearly=com_kw_2027_pu

New Load.load_p1rlv20232_2 conn=wye bus1=p1rlv20232.2 kV=0.12 Vminpu=0.8 Vmaxpu=1.2 model=1 kW=1.9288466752414104 kvar=0.5041700498617779 Phases=1 !yearly=com_kw_2027_pu

New Load.load_p1rlv20233_1 conn=wye bus1=p1rlv20233.1 kV=0.12 Vminpu=0.8 Vmaxpu=1.2 model=1 kW=2.1929222716193686 kvar=0.6234515659906771 Phases=1 !yearly=com_kw_17396_pu

New Load.load_p1rlv20233_2 conn=wye bus1=p1rlv20233.2 kV=0.12 Vminpu=0.8 Vmaxpu=1.2 model=1 kW=2.1929222716193686 kvar=0.6234515659906771 Phases=1 !yearly=com_kw_17396_pu

New Load.load_p1rlv20234_1 conn=wye bus1=p1rlv20234.1 kV=0.12 Vminpu=0.8 Vmaxpu=1.2 model=1 kW=2.3058115791316 kvar=0.6614039959360709 Phases=1 !yearly=com_kw_41376_pu

New Load.load_p1rlv20234_2 conn=wye bus1=p1rlv20234.2 kV=0.12 Vminpu=0.8 Vmaxpu=1.2 model=1 kW=2.3058115791316 kvar=0.6614039959360709 Phases=1 !yearly=com_kw_41376_pu

New Load.load_p1rlv20235_1 conn=wye bus1=p1rlv20235.1 kV=0.12 Vminpu=0.8 Vmaxpu=1.2 model=1 kW=1.9972586284721718 kvar=0.5405993695804993 Phases=1 !yearly=com_kw_33340_pu

New Load.load_p1rlv20235_2 conn=wye bus1=p1rlv20235.2 kV=0.12 Vminpu=0.8 Vmaxpu=1.2 model=1 kW=1.9972586284721718 kvar=0.5405993695804993 Phases=1 !yearly=com_kw_33340_pu

New Load.load_p1rlv20236_1 conn=wye bus1=p1rlv20236.1 kV=0.12 Vminpu=0.8 Vmaxpu=1.2 model=1 kW=2.940151571607843 kvar=0.7360323556900852 Phases=1 !yearly=com_kw_34135_pu

New Load.load_p1rlv20236_2 conn=wye bus1=p1rlv20236.2 kV=0.12 Vminpu=0.8 Vmaxpu=1.2 model=1 kW=2.940151571607843 kvar=0.7360323556900852 Phases=1 !yearly=com_kw_34135_pu

New Load.load_p1rlv20237_1 conn=wye bus1=p1rlv20237.1 kV=0.12 Vminpu=0.8 Vmaxpu=1.2 model=1 kW=2.499057743464556 kvar=0.3373788699823939 Phases=1 !yearly=com_kw_41529_pu

New Load.load_p1rlv20237_2 conn=wye bus1=p1rlv20237.2 kV=0.12 Vminpu=0.8 Vmaxpu=1.2 model=1 kW=2.499057743464556 kvar=0.3373788699823939 Phases=1 !yearly=com_kw_41529_pu

New Load.load_p1rlv20238_1 conn=wye bus1=p1rlv20238.1 kV=0.12 Vminpu=0.8 Vmaxpu=1.2 model=1 kW=6.171921265639173 kvar=0.29621618517422543 Phases=1 !yearly=com_kw_33396_pu

New Load.load_p1rlv20238_2 conn=wye bus1=p1rlv20238.2 kV=0.12 Vminpu=0.8 Vmaxpu=1.2 model=1 kW=6.171921265639173 kvar=0.29621618517422543 Phases=1 !yearly=com_kw_33396_pu

New Load.load_p1rlv20239_1 conn=wye bus1=p1rlv20239.1 kV=0.12 Vminpu=0.8 Vmaxpu=1.2 model=1 kW=3.772462172331776 kvar=1.0755387210843397 Phases=1 !yearly=com_kw_29082_pu

New Load.load_p1rlv20239_2 conn=wye bus1=p1rlv20239.2 kV=0.12 Vminpu=0.8 Vmaxpu=1.2 model=1 kW=3.772462172331776 kvar=1.0755387210843397 Phases=1 !yearly=com_kw_29082_pu

New Load.load_p1rlv20240_1 conn=wye bus1=p1rlv20240.1 kV=0.12 Vminpu=0.8 Vmaxpu=1.2 model=1 kW=2.2489699911360574 kvar=0.6200743429841856 Phases=1 !yearly=com_kw_2255_pu

New Load.load_p1rlv20240_2 conn=wye bus1=p1rlv20240.2 kV=0.12 Vminpu=0.8 Vmaxpu=1.2 model=1 kW=2.2489699911360574 kvar=0.6200743429841856 Phases=1 !yearly=com_kw_2255_pu

New Load.load_p1rlv20241_1 conn=wye bus1=p1rlv20241.1 kV=0.12 Vminpu=0.8 Vmaxpu=1.2 model=1 kW=2.4101433393695846 kvar=0.6689294198774405 Phases=1 !yearly=com_kw_29330_pu

New Load.load_p1rlv20241_2 conn=wye bus1=p1rlv20241.2 kV=0.12 Vminpu=0.8 Vmaxpu=1.2 model=1 kW=2.4101433393695846 kvar=0.6689294198774405 Phases=1 !yearly=com_kw_29330_pu

New Load.load_p1rlv20242_1 conn=wye bus1=p1rlv20242.1 kV=0.12 Vminpu=0.8 Vmaxpu=1.2 model=1 kW=1.7306146078932911 kvar=0.42683788590794824 Phases=1 !yearly=com_kw_1644_pu

New Load.load_p1rlv20242_2 conn=wye bus1=p1rlv20242.2 kV=0.12 Vminpu=0.8 Vmaxpu=1.2 model=1 kW=1.7306146078932911 kvar=0.42683788590794824 Phases=1 !yearly=com_kw_1644_pu

New Load.load_p1rlv20243_1 conn=wye bus1=p1rlv20243.1 kV=0.12 Vminpu=0.8 Vmaxpu=1.2 model=1 kW=2.8911399852388224 kvar=0.6742140281283158 Phases=1 !yearly=com_kw_34437_pu

New Load.load_p1rlv20243_2 conn=wye bus1=p1rlv20243.2 kV=0.12 Vminpu=0.8 Vmaxpu=1.2 model=1 kW=2.8911399852388224 kvar=0.6742140281283158 Phases=1 !yearly=com_kw_34437_pu

New Load.load_p1rlv20244_1 conn=wye bus1=p1rlv20244.1 kV=0.12 Vminpu=0.8 Vmaxpu=1.2 model=1 kW=7.97907620861783 kvar=1.5500130366861116 Phases=1 !yearly=com_kw_19841_pu

New Load.load_p1rlv20244_2 conn=wye bus1=p1rlv20244.2 kV=0.12 Vminpu=0.8 Vmaxpu=1.2 model=1 kW=7.97907620861783 kvar=1.5500130366861116 Phases=1 !yearly=com_kw_19841_pu

New Load.load_p1rlv20245_1 conn=wye bus1=p1rlv20245.1 kV=0.12 Vminpu=0.8 Vmaxpu=1.2 model=1 kW=3.8249779386922644 kvar=0.12555321354723425 Phases=1 !yearly=com_kw_17375_pu

New Load.load_p1rlv20245_2 conn=wye bus1=p1rlv20245.2 kV=0.12 Vminpu=0.8 Vmaxpu=1.2 model=1 kW=3.8249779386922644 kvar=0.12555321354723425 Phases=1 !yearly=com_kw_17375_pu

New Load.load_p1rlv20246_1 conn=wye bus1=p1rlv20246.1 kV=0.12 Vminpu=0.8 Vmaxpu=1.2 model=1 kW=3.443583112785006 kvar=0.2576306570382033 Phases=1 !yearly=com_kw_32163_pu

New Load.load_p1rlv20246_2 conn=wye bus1=p1rlv20246.2 kV=0.12 Vminpu=0.8 Vmaxpu=1.2 model=1 kW=3.443583112785006 kvar=0.2576306570382033 Phases=1 !yearly=com_kw_32163_pu

New Load.load_p1rlv20247_1 conn=wye bus1=p1rlv20247.1 kV=0.12 Vminpu=0.8 Vmaxpu=1.2 model=1 kW=4.022372544980403 kvar=0.8931368368374939 Phases=1 !yearly=com_kw_16940_pu

New Load.load_p1rlv20247_2 conn=wye bus1=p1rlv20247.2 kV=0.12 Vminpu=0.8 Vmaxpu=1.2 model=1 kW=4.022372544980403 kvar=0.8931368368374939 Phases=1 !yearly=com_kw_16940_pu

New Load.load_p1rlv20248_1 conn=wye bus1=p1rlv20248.1 kV=0.12 Vminpu=0.8 Vmaxpu=1.2 model=1 kW=5.572834279072763 kvar=0.683319877554522 Phases=1 !yearly=com_kw_32251_pu

New Load.load_p1rlv20248_2 conn=wye bus1=p1rlv20248.2 kV=0.12 Vminpu=0.8 Vmaxpu=1.2 model=1 kW=5.572834279072763 kvar=0.683319877554522 Phases=1 !yearly=com_kw_32251_pu

New Load.load_p1rlv20249_1 conn=wye bus1=p1rlv20249.1 kV=0.12 Vminpu=0.8 Vmaxpu=1.2 model=1 kW=2.0788570276665777 kvar=0.5949433355568994 Phases=1 !yearly=com_kw_2316_pu

New Load.load_p1rlv20249_2 conn=wye bus1=p1rlv20249.2 kV=0.12 Vminpu=0.8 Vmaxpu=1.2 model=1 kW=2.0788570276665777 kvar=0.5949433355568994 Phases=1 !yearly=com_kw_2316_pu

New Load.load_p1rlv20250_1 conn=wye bus1=p1rlv20250.1 kV=0.12 Vminpu=0.8 Vmaxpu=1.2 model=1 kW=1.839175601618853 kvar=0.4557221316666175 Phases=1 !yearly=com_kw_17204_pu

New Load.load_p1rlv20250_2 conn=wye bus1=p1rlv20250.2 kV=0.12 Vminpu=0.8 Vmaxpu=1.2 model=1 kW=1.839175601618853 kvar=0.4557221316666175 Phases=1 !yearly=com_kw_17204_pu

New Load.load_p1rlv20251_1 conn=wye bus1=p1rlv20251.1 kV=0.12 Vminpu=0.8 Vmaxpu=1.2 model=1 kW=2.1976836424562762 kvar=0.1051220183522544 Phases=1 !yearly=com_kw_17157_pu

New Load.load_p1rlv20251_2 conn=wye bus1=p1rlv20251.2 kV=0.12 Vminpu=0.8 Vmaxpu=1.2 model=1 kW=2.1976836424562762 kvar=0.1051220183522544 Phases=1 !yearly=com_kw_17157_pu

New Load.load_p1rlv20252_1 conn=wye bus1=p1rlv20252.1 kV=0.12 Vminpu=0.8 Vmaxpu=1.2 model=1 kW=2.559543722017981 kvar=0.7101531402521069 Phases=1 !yearly=com_kw_1714_pu

New Load.load_p1rlv20252_2 conn=wye bus1=p1rlv20252.2 kV=0.12 Vminpu=0.8 Vmaxpu=1.2 model=1 kW=2.559543722017981 kvar=0.7101531402521069 Phases=1 !yearly=com_kw_1714_pu

New Load.load_p1rlv20253 conn=wye bus1=p1rlv20253.1.2.3 kV=0.48 Vminpu=0.8 Vmaxpu=1.2 model=1 kW=43.51528302762812 kvar=0.6946086574597357 Phases=3 !yearly=com_kw_2770_pu

New Load.load_p1rlv20254_1 conn=wye bus1=p1rlv20254.1 kV=0.12 Vminpu=0.8 Vmaxpu=1.2 model=1 kW=2.9149869461814677 kvar=0.5767582022429075 Phases=1 !yearly=com_kw_32249_pu

New Load.load_p1rlv20254_2 conn=wye bus1=p1rlv20254.2 kV=0.12 Vminpu=0.8 Vmaxpu=1.2 model=1 kW=2.9149869461814677 kvar=0.5767582022429075 Phases=1 !yearly=com_kw_32249_pu

New Load.load_p1rlv20255_1 conn=wye bus1=p1rlv20255.1 kV=0.12 Vminpu=0.8 Vmaxpu=1.2 model=1 kW=2.1976836424562762 kvar=0.1051220183522544 Phases=1 !yearly=com_kw_17157_pu

New Load.load_p1rlv20255_2 conn=wye bus1=p1rlv20255.2 kV=0.12 Vminpu=0.8 Vmaxpu=1.2 model=1 kW=2.1976836424562762 kvar=0.1051220183522544 Phases=1 !yearly=com_kw_17157_pu

New Load.load_p1rlv20256_1 conn=wye bus1=p1rlv20256.1 kV=0.12 Vminpu=0.8 Vmaxpu=1.2 model=1 kW=1.7945002932492726 kvar=0.47970526391420704 Phases=1 !yearly=com_kw_31691_pu

New Load.load_p1rlv20256_2 conn=wye bus1=p1rlv20256.2 kV=0.12 Vminpu=0.8 Vmaxpu=1.2 model=1 kW=1.7945002932492726 kvar=0.47970526391420704 Phases=1 !yearly=com_kw_31691_pu

New Load.load_p1rlv20257_1 conn=wye bus1=p1rlv20257.1 kV=0.12 Vminpu=0.8 Vmaxpu=1.2 model=1 kW=3.0772156037646567 kvar=0.01984596164170695 Phases=1 !yearly=com_kw_41589_pu

New Load.load_p1rlv20257_2 conn=wye bus1=p1rlv20257.2 kV=0.12 Vminpu=0.8 Vmaxpu=1.2 model=1 kW=3.0772156037646567 kvar=0.01984596164170695 Phases=1 !yearly=com_kw_41589_pu

New Load.load_p1rlv20258_1 conn=wye bus1=p1rlv20258.1 kV=0.12 Vminpu=0.8 Vmaxpu=1.2 model=1 kW=1.9102523936464706 kvar=0.36753422396224456 Phases=1 !yearly=com_kw_22637_pu

New Load.load_p1rlv20258_2 conn=wye bus1=p1rlv20258.2 kV=0.12 Vminpu=0.8 Vmaxpu=1.2 model=1 kW=1.9102523936464706 kvar=0.36753422396224456 Phases=1 !yearly=com_kw_22637_pu

New Load.load_p1rlv20259_1 conn=wye bus1=p1rlv20259.1 kV=0.12 Vminpu=0.8 Vmaxpu=1.2 model=1 kW=2.340123280881575 kvar=0.28306337277173615 Phases=1 !yearly=com_kw_33792_pu

New Load.load_p1rlv20259_2 conn=wye bus1=p1rlv20259.2 kV=0.12 Vminpu=0.8 Vmaxpu=1.2 model=1 kW=2.340123280881575 kvar=0.28306337277173615 Phases=1 !yearly=com_kw_33792_pu

New Load.load_p1rlv20260_1 conn=wye bus1=p1rlv20260.1 kV=0.12 Vminpu=0.8 Vmaxpu=1.2 model=1 kW=1.9102523936464706 kvar=0.36753422396224456 Phases=1 !yearly=com_kw_22637_pu

New Load.load_p1rlv20260_2 conn=wye bus1=p1rlv20260.2 kV=0.12 Vminpu=0.8 Vmaxpu=1.2 model=1 kW=1.9102523936464706 kvar=0.36753422396224456 Phases=1 !yearly=com_kw_22637_pu

New Load.load_p1rlv20261_1 conn=wye bus1=p1rlv20261.1 kV=0.12 Vminpu=0.8 Vmaxpu=1.2 model=1 kW=3.8384788922523976 kvar=0.8208434974710452 Phases=1 !yearly=com_kw_39379_pu

New Load.load_p1rlv20261_2 conn=wye bus1=p1rlv20261.2 kV=0.12 Vminpu=0.8 Vmaxpu=1.2 model=1 kW=3.8384788922523976 kvar=0.8208434974710452 Phases=1 !yearly=com_kw_39379_pu

New Load.load_p1rlv20640_1 conn=wye bus1=p1rlv20640.1 kV=0.12 Vminpu=0.8 Vmaxpu=1.2 model=1 kW=2.591196691973241 kvar=0.24931128849039932 Phases=1 !yearly=com_kw_29427_pu

New Load.load_p1rlv20640_2 conn=wye bus1=p1rlv20640.2 kV=0.12 Vminpu=0.8 Vmaxpu=1.2 model=1 kW=2.591196691973241 kvar=0.24931128849039932 Phases=1 !yearly=com_kw_29427_pu

New Load.load_p1rlv20641 conn=wye bus1=p1rlv20641.1.2.3 kV=0.48 Vminpu=0.8 Vmaxpu=1.2 model=1 kW=22.981140123555225 kvar=2.274887479609956 Phases=3 !yearly=com_kw_31462_pu

New Load.load_p1rlv20642 conn=wye bus1=p1rlv20642.1.2.3 kV=0.48 Vminpu=0.8 Vmaxpu=1.2 model=1 kW=25.87468248499526 kvar=2.453058397312973 Phases=3 !yearly=com_kw_17006_pu

New Load.load_p1rlv20643_1 conn=wye bus1=p1rlv20643.1 kV=0.12 Vminpu=0.8 Vmaxpu=1.2 model=1 kW=2.340123280881575 kvar=0.28306337277173615 Phases=1 !yearly=com_kw_33792_pu

New Load.load_p1rlv20643_2 conn=wye bus1=p1rlv20643.2 kV=0.12 Vminpu=0.8 Vmaxpu=1.2 model=1 kW=2.340123280881575 kvar=0.28306337277173615 Phases=1 !yearly=com_kw_33792_pu

New Load.load_p1rlv20645_1 conn=wye bus1=p1rlv20645.1 kV=0.12 Vminpu=0.8 Vmaxpu=1.2 model=1 kW=5.76524518526279 kvar=1.5787960636678207 Phases=1 !yearly=com_kw_35485_pu

New Load.load_p1rlv20645_2 conn=wye bus1=p1rlv20645.2 kV=0.12 Vminpu=0.8 Vmaxpu=1.2 model=1 kW=5.76524518526279 kvar=1.5787960636678207 Phases=1 !yearly=com_kw_35485_pu

New Load.load_p1rlv20647_1 conn=wye bus1=p1rlv20647.1 kV=0.12 Vminpu=0.8 Vmaxpu=1.2 model=1 kW=3.70113975836909 kvar=0.821913228131817 Phases=1 !yearly=com_kw_16626_pu

New Load.load_p1rlv20647_2 conn=wye bus1=p1rlv20647.2 kV=0.12 Vminpu=0.8 Vmaxpu=1.2 model=1 kW=3.70113975836909 kvar=0.821913228131817 Phases=1 !yearly=com_kw_16626_pu

New Load.load_p1rlv20648_1 conn=wye bus1=p1rlv20648.1 kV=0.12 Vminpu=0.8 Vmaxpu=1.2 model=1 kW=3.394223434547549 kvar=0.9939513085168344 Phases=1 !yearly=com_kw_1937_pu

New Load.load_p1rlv20648_2 conn=wye bus1=p1rlv20648.2 kV=0.12 Vminpu=0.8 Vmaxpu=1.2 model=1 kW=3.394223434547549 kvar=0.9939513085168344 Phases=1 !yearly=com_kw_1937_pu

New Load.load_p1rlv20649_1 conn=wye bus1=p1rlv20649.1 kV=0.12 Vminpu=0.8 Vmaxpu=1.2 model=1 kW=1.9522113739764493 kvar=0.5269598949238821 Phases=1 !yearly=com_kw_41612_pu

New Load.load_p1rlv20649_2 conn=wye bus1=p1rlv20649.2 kV=0.12 Vminpu=0.8 Vmaxpu=1.2 model=1 kW=1.9522113739764493 kvar=0.5269598949238821 Phases=1 !yearly=com_kw_41612_pu

New Load.load_p1rlv20650_1 conn=wye bus1=p1rlv20650.1 kV=0.12 Vminpu=0.8 Vmaxpu=1.2 model=1 kW=1.4873513309536293 kvar=0.5787360449666167 Phases=1 !yearly=res_kw_3001_pu

New Load.load_p1rlv20650_2 conn=wye bus1=p1rlv20650.2 kV=0.12 Vminpu=0.8 Vmaxpu=1.2 model=1 kW=1.4873513309536293 kvar=0.5787360449666167 Phases=1 !yearly=res_kw_3001_pu

New Load.load_p1rlv20652 conn=wye bus1=p1rlv20652.1.2.3 kV=0.48 Vminpu=0.8 Vmaxpu=1.2 model=1 kW=18.271253786773748 kvar=5.700527191902824 Phases=3 !yearly=com_kw_19668_pu

New Load.load_p1rlv20653_1 conn=wye bus1=p1rlv20653.1 kV=0.12 Vminpu=0.8 Vmaxpu=1.2 model=1 kW=3.7865903007860364 kvar=0.8434944059225316 Phases=1 !yearly=com_kw_29164_pu

New Load.load_p1rlv20653_2 conn=wye bus1=p1rlv20653.2 kV=0.12 Vminpu=0.8 Vmaxpu=1.2 model=1 kW=3.7865903007860364 kvar=0.8434944059225316 Phases=1 !yearly=com_kw_29164_pu

New Load.load_p1rlv20654_1 conn=wye bus1=p1rlv20654.1 kV=0.12 Vminpu=0.8 Vmaxpu=1.2 model=1 kW=3.528223782319545 kvar=0.5819289308086721 Phases=1 !yearly=com_kw_29376_pu

New Load.load_p1rlv20654_2 conn=wye bus1=p1rlv20654.2 kV=0.12 Vminpu=0.8 Vmaxpu=1.2 model=1 kW=3.528223782319545 kvar=0.5819289308086721 Phases=1 !yearly=com_kw_29376_pu

New Load.load_p1rlv20656 conn=wye bus1=p1rlv20656.1.2.3 kV=0.48 Vminpu=0.8 Vmaxpu=1.2 model=1 kW=46.315802502474575 kvar=1.9048912550044401 Phases=3 !yearly=com_kw_33657_pu

New Load.load_p1rlv20657_1 conn=wye bus1=p1rlv20657.1 kV=0.12 Vminpu=0.8 Vmaxpu=1.2 model=1 kW=1.9102523936464706 kvar=0.36753422396224456 Phases=1 !yearly=com_kw_22637_pu

New Load.load_p1rlv20657_2 conn=wye bus1=p1rlv20657.2 kV=0.12 Vminpu=0.8 Vmaxpu=1.2 model=1 kW=1.9102523936464706 kvar=0.36753422396224456 Phases=1 !yearly=com_kw_22637_pu

New Load.load_p1rlv20659_1 conn=wye bus1=p1rlv20659.1 kV=0.12 Vminpu=0.8 Vmaxpu=1.2 model=1 kW=2.032692214158918 kvar=0.5109700530012344 Phases=1 !yearly=com_kw_2581_pu

New Load.load_p1rlv20659_2 conn=wye bus1=p1rlv20659.2 kV=0.12 Vminpu=0.8 Vmaxpu=1.2 model=1 kW=2.032692214158918 kvar=0.5109700530012344 Phases=1 !yearly=com_kw_2581_pu

New Load.load_p1rlv20660_1 conn=wye bus1=p1rlv20660.1 kV=0.12 Vminpu=0.8 Vmaxpu=1.2 model=1 kW=6.643415613436883 kvar=1.2383361080783402 Phases=1 !yearly=com_kw_2502_pu

New Load.load_p1rlv20660_2 conn=wye bus1=p1rlv20660.2 kV=0.12 Vminpu=0.8 Vmaxpu=1.2 model=1 kW=6.643415613436883 kvar=1.2383361080783402 Phases=1 !yearly=com_kw_2502_pu

New Load.load_p1rlv20661_1 conn=wye bus1=p1rlv20661.1 kV=0.12 Vminpu=0.8 Vmaxpu=1.2 model=1 kW=8.43488114091869 kvar=2.4632981139143113 Phases=1 !yearly=com_kw_29557_pu

New Load.load_p1rlv20661_2 conn=wye bus1=p1rlv20661.2 kV=0.12 Vminpu=0.8 Vmaxpu=1.2 model=1 kW=8.43488114091869 kvar=2.4632981139143113 Phases=1 !yearly=com_kw_29557_pu

New Load.load_p1rlv20663_1 conn=wye bus1=p1rlv20663.1 kV=0.12 Vminpu=0.8 Vmaxpu=1.2 model=1 kW=7.274059604043857 kvar=0.47169051762977315 Phases=1 !yearly=com_kw_29310_pu

New Load.load_p1rlv20663_2 conn=wye bus1=p1rlv20663.2 kV=0.12 Vminpu=0.8 Vmaxpu=1.2 model=1 kW=7.274059604043857 kvar=0.47169051762977315 Phases=1 !yearly=com_kw_29310_pu

New Load.load_p1rlv20664_1 conn=wye bus1=p1rlv20664.1 kV=0.12 Vminpu=0.8 Vmaxpu=1.2 model=1 kW=2.5202593896091736 kvar=0.6973445820856009 Phases=1 !yearly=com_kw_1115_pu

New Load.load_p1rlv20664_2 conn=wye bus1=p1rlv20664.2 kV=0.12 Vminpu=0.8 Vmaxpu=1.2 model=1 kW=2.5202593896091736 kvar=0.6973445820856009 Phases=1 !yearly=com_kw_1115_pu

New Load.load_p1rlv20665 conn=wye bus1=p1rlv20665.1.2.3 kV=0.48 Vminpu=0.8 Vmaxpu=1.2 model=1 kW=22.34932374375116 kvar=6.355804000700292 Phases=3 !yearly=com_kw_41293_pu

New Load.load_p1rlv20669_1 conn=wye bus1=p1rlv20669.1 kV=0.12 Vminpu=0.8 Vmaxpu=1.2 model=1 kW=2.1976836424562762 kvar=0.1051220183522544 Phases=1 !yearly=com_kw_17157_pu

New Load.load_p1rlv20669_2 conn=wye bus1=p1rlv20669.2 kV=0.12 Vminpu=0.8 Vmaxpu=1.2 model=1 kW=2.1976836424562762 kvar=0.1051220183522544 Phases=1 !yearly=com_kw_17157_pu

New Load.load_p1rlv20671_1 conn=wye bus1=p1rlv20671.1 kV=0.12 Vminpu=0.8 Vmaxpu=1.2 model=1 kW=1.4786893203254163 kvar=0.3666592754227633 Phases=1 !yearly=com_kw_29668_pu

New Load.load_p1rlv20671_2 conn=wye bus1=p1rlv20671.2 kV=0.12 Vminpu=0.8 Vmaxpu=1.2 model=1 kW=1.4786893203254163 kvar=0.3666592754227633 Phases=1 !yearly=com_kw_29668_pu

New Load.load_p1rlv20678_1 conn=wye bus1=p1rlv20678.1 kV=0.12 Vminpu=0.8 Vmaxpu=1.2 model=1 kW=3.772462172331776 kvar=1.0755387210843397 Phases=1 !yearly=com_kw_29082_pu

New Load.load_p1rlv20678_2 conn=wye bus1=p1rlv20678.2 kV=0.12 Vminpu=0.8 Vmaxpu=1.2 model=1 kW=3.772462172331776 kvar=1.0755387210843397 Phases=1 !yearly=com_kw_29082_pu

New Load.load_p1rlv20684_1 conn=wye bus1=p1rlv20684.1 kV=0.12 Vminpu=0.8 Vmaxpu=1.2 model=1 kW=4.920740456502267 kvar=0.7672528600453331 Phases=1 !yearly=com_kw_1354_pu

New Load.load_p1rlv20684_2 conn=wye bus1=p1rlv20684.2 kV=0.12 Vminpu=0.8 Vmaxpu=1.2 model=1 kW=4.920740456502267 kvar=0.7672528600453331 Phases=1 !yearly=com_kw_1354_pu

New Load.load_p1rlv20690_1 conn=wye bus1=p1rlv20690.1 kV=0.12 Vminpu=0.8 Vmaxpu=1.2 model=1 kW=4.444955448129672 kvar=1.0326628542660037 Phases=1 !yearly=com_kw_8540_pu

New Load.load_p1rlv20690_2 conn=wye bus1=p1rlv20690.2 kV=0.12 Vminpu=0.8 Vmaxpu=1.2 model=1 kW=4.444955448129672 kvar=1.0326628542660037 Phases=1 !yearly=com_kw_8540_pu

New Load.load_p1rlv20691_1 conn=wye bus1=p1rlv20691.1 kV=0.12 Vminpu=0.8 Vmaxpu=1.2 model=1 kW=3.56773081582568 kvar=0.025560880160820944 Phases=1 !yearly=com_kw_16229_pu

New Load.load_p1rlv20691_2 conn=wye bus1=p1rlv20691.2 kV=0.12 Vminpu=0.8 Vmaxpu=1.2 model=1 kW=3.56773081582568 kvar=0.025560880160820944 Phases=1 !yearly=com_kw_16229_pu

New Load.load_p1rlv20833_1 conn=wye bus1=p1rlv20833.1 kV=0.12 Vminpu=0.8 Vmaxpu=1.2 model=1 kW=2.2424734612480455 kvar=0.6529242742050403 Phases=1 !yearly=com_kw_32193_pu

New Load.load_p1rlv20833_2 conn=wye bus1=p1rlv20833.2 kV=0.12 Vminpu=0.8 Vmaxpu=1.2 model=1 kW=2.2424734612480455 kvar=0.6529242742050403 Phases=1 !yearly=com_kw_32193_pu

New Load.load_p1rlv20845_1 conn=wye bus1=p1rlv20845.1 kV=0.12 Vminpu=0.8 Vmaxpu=1.2 model=1 kW=3.2219087879829873 kvar=0.3595087789107823 Phases=1 !yearly=com_kw_18309_pu

New Load.load_p1rlv20845_2 conn=wye bus1=p1rlv20845.2 kV=0.12 Vminpu=0.8 Vmaxpu=1.2 model=1 kW=3.2219087879829873 kvar=0.3595087789107823 Phases=1 !yearly=com_kw_18309_pu

New Load.load_p1rlv20846_1 conn=wye bus1=p1rlv20846.1 kV=0.12 Vminpu=0.8 Vmaxpu=1.2 model=1 kW=2.1343287185333217 kvar=0.10429894918818222 Phases=1 !yearly=com_kw_1789_pu

New Load.load_p1rlv20846_2 conn=wye bus1=p1rlv20846.2 kV=0.12 Vminpu=0.8 Vmaxpu=1.2 model=1 kW=2.1343287185333217 kvar=0.10429894918818222 Phases=1 !yearly=com_kw_1789_pu

New Load.load_p1rlv20857_1 conn=wye bus1=p1rlv20857.1 kV=0.12 Vminpu=0.8 Vmaxpu=1.2 model=1 kW=2.4037437915385973 kvar=0.5086059213404144 Phases=1 !yearly=com_kw_39761_pu

New Load.load_p1rlv20857_2 conn=wye bus1=p1rlv20857.2 kV=0.12 Vminpu=0.8 Vmaxpu=1.2 model=1 kW=2.4037437915385973 kvar=0.5086059213404144 Phases=1 !yearly=com_kw_39761_pu

New Load.load_p1rlv20859_1 conn=wye bus1=p1rlv20859.1 kV=0.12 Vminpu=0.8 Vmaxpu=1.2 model=1 kW=4.232057012168481 kvar=0.2513317849586886 Phases=1 !yearly=com_kw_1949_pu

New Load.load_p1rlv20859_2 conn=wye bus1=p1rlv20859.2 kV=0.12 Vminpu=0.8 Vmaxpu=1.2 model=1 kW=4.232057012168481 kvar=0.2513317849586886 Phases=1 !yearly=com_kw_1949_pu

New Load.load_p1rlv20870_1 conn=wye bus1=p1rlv20870.1 kV=0.12 Vminpu=0.8 Vmaxpu=1.2 model=1 kW=6.28601210617879 kvar=1.8361187037327389 Phases=1 !yearly=com_kw_1336_pu

New Load.load_p1rlv20870_2 conn=wye bus1=p1rlv20870.2 kV=0.12 Vminpu=0.8 Vmaxpu=1.2 model=1 kW=6.28601210617879 kvar=1.8361187037327389 Phases=1 !yearly=com_kw_1336_pu

New Load.load_p1rlv20871_1 conn=wye bus1=p1rlv20871.1 kV=0.12 Vminpu=0.8 Vmaxpu=1.2 model=1 kW=6.089998452302163 kvar=1.6419742137235034 Phases=1 !yearly=com_kw_29251_pu

...